docs/COMANDOS.txt
--- PAGE 1 ---
Códigos de Execução Page 1 of 668
Códigos de Execução 
Mais:
Código de Execução ARQV
Código de Execução CART
Código de Execução CASO
Código de Execução CLOG
Código de Execução COMP
Código de Execução CONC
Código de Execução DAEB
Código de Execução DAGA
Código de Execução DAGR
Código de Execução DANC
Código de Execução DARE
Código de Execução DAVR
Código de Execução DBAR
Código de Execução DBDR
Código de Execução DBSH
Código de Execução DBTB
Código de Execução DCAI
Código de Execução DCAR
Código de Execução DCBA
Código de Execução DCCA
Código de Execução DCCV
Código de Execução DCER
Código de Execução DCLI
Código de Execução DCMT
Código de Execução DCNV
Código de Execução DCPT
Código de Execução DCQV
Código de Execução DCRE
Código de Execução DCSC
Código de Execução DCTE
Código de Execução DCTG
Código de Execução DCTR
Código de Execução DCUR
Código de Execução DELO
Código de Execução DEMT
Código de Execução DFCR
Código de Execução DFCT
Código de Execução DFPV
Código de Execução DFQL
Código de Execução DFTB
Código de Execução DFRQ

Código de Execução DGBA
file:///C:/Users/mauri/AppData/Local/Temp/~hhFC97.htm 16/05/2026

--- PAGE 2 ---
Códigos de Execução Page 2 of 668
Códigos de Execução
Código de Execução ARQV
Mais:
Função
Opções de Controle de Execução Disponíveis
Conjunto de Dados
Formato do Número do Caso
Formato da Confirmação de Inicialização
file:///C:/Users/mauri/AppData/Local/Temp/~hhFC97.htm 16/05/2026

--- PAGE 3 ---
Códigos de Execução Page 3 of 668
Códigos de Execução > Código de Execução ARQV
Função
Gerenciamento dos arquivos de casos armazenados de fluxo de potência dos programas ANAREDE e POWERMOD da PECO (Philadelphia Electric Company). O
arquivo ANAREDE de casos armazenados é de acesso exclusivo do programa ANAREDE. O arquivo POWERMOD de casos armazenados, gerado pelo programa
ANAREDE, tem a mesma estrutura que o "History Master File" da PECO, com o objetivo de facilitar a transferência de dados entre estes dois programas.
De acordo com a opção selecionada, as seguintes operações podem ser efetuadas:
1. Inicialização do arquivo. Esta é a primeira operação a ser efetuada para a criação do arquivo. Utilizada em um arquivo já existente elimina todos os casos
gravados neste arquivo.
2. Eliminação de caso gravado. Esta operação elimina do arquivo um caso gravado anteriormente.
3. Gravação de caso. Esta operação grava no arquivo um caso contendo todas as informações e dados relativos ao sistema elétrico em memória.
4. Restabelecimento do caso. Esta operação restabelece para a memória todas as informações e dados relativos ao sistema gravado em um caso.
5. Listagem dos casos gravados. Esta operação gera a listagem das informações relativas a todos os casos gravados e ao próprio arquivo.
A operação de listagem dos casos gravados não requer dados adicionais para execução. As demais operações requerem a especificação do número do caso a ser
eliminado, gravado ou restabelecido, ou a confirmação de inicialização do arquivo.
A operação de listagem dos casos gravados pode ser utilizada em conjunto com qualquer outra operação. Entretanto, as demais operações não podem ser usadas
conjugadas entre si. Hierarquicamente somente uma delas é executada, obedecendo a ordem: inicialização, eliminação, gravação e restabelecimento de caso.
file:///C:/Users/mauri/AppData/Local/Temp/~hhFC97.htm 16/05/2026

--- PAGE 4 ---
Códigos de Execução Page 4 of 668
Códigos de Execução > Código de Execução ARQV
Opções de Controle de Execução Disponíveis
1. Inicialização do arquivo:
INIC IMPR FILE 80CO PECO
2. Eliminação de caso gravado:
ELIM IMPR FILE 80CO PECO
3. Gravação de caso:
GRAV IMPR FILE 80CO PECO SUBS NOVO AREG JUMP
4. Restabelecimento de caso:
REST IMPR FILE 80CO PECO
5. Listagem dos casos gravados:
LIST IMPR FILE 80CO PECO
O gerenciamento do arquivo POWERMOD de casos armazenados é efetuado pela ativação da opção PECO. Se esta opção não for especificada o gerenciamento é
efetuado sobre o arquivo ANAREDE de casos armazenados.
file:///C:/Users/mauri/AppData/Local/Temp/~hhFC97.htm 16/05/2026

--- PAGE 5 ---
Códigos de Execução Page 5 of 668
Códigos de Execução > Código de Execução ARQV
Conjunto de Dados
1. Registro com o código ARQV e opções ativadas.
2. Registro com o número do caso a ser eliminado, gravado ou restabelecido, ou com a confirmação para inicialização do arquivo.
file:///C:/Users/mauri/AppData/Local/Temp/~hhFC97.htm 16/05/2026

--- PAGE 6 ---
Códigos de Execução Page 6 of 668
Códigos de Execução > Código de Execução ARQV
Formato do Número do Caso
Campo Colunas Descrição Default
Número 1-2 Número do caso a ser eliminado, gravado ou restabelecido, de
acordo a opção especificada (ELIM, GRAV ou REST). Se a
operação a ser efetuada for a de gravação de um caso, este
campo pode ser deixado em branco (ou zero). Neste modo, o
menor número ainda não utilizado é associado pelo programa ao
caso a ser gravado. Se na operação de gravação, for especificado
o número de um caso já existente, a gravação só é efetuada se a
opção de substituição (SUBS) for ativada.
file:///C:/Users/mauri/AppData/Local/Temp/~hhFC97.htm 16/05/2026

--- PAGE 7 ---
Códigos de Execução Page 7 of 668
Códigos de Execução > Código de Execução ARQV
Formato da Confirmação de Inicialização
Campo Colunas Descrição Default
Confirmação 1-3 Caracteres SIM para a confirmação de inicialização do NÃO
arquivo ou gravação de caso que não está convergido.
file:///C:/Users/mauri/AppData/Local/Temp/~hhFC97.htm 16/05/2026

--- PAGE 8 ---
Códigos de Execução Page 8 of 668
Códigos de Execução
Código de Execução CART
Mais:
Função
Opções de Controle de Execução Disponíveis
Conjunto de Dados
file:///C:/Users/mauri/AppData/Local/Temp/~hhFC97.htm 16/05/2026

--- PAGE 9 ---
Códigos de Execução Page 9 of 668
Códigos de Execução > Código de Execução CART
Função
Gravação dos dados relativos ao sistema elétrico em memória em um arquivo associado à unidade lógica #7, no formato dos dados de entrada.
file:///C:/Users/mauri/AppData/Local/Temp/~hhFC97.htm 16/05/2026

--- PAGE 10 ---
Códigos de Execução Page 10 of 668
Códigos de Execução > Código de Execução CART
Opções de Controle de Execução Disponíveis
IMPR FILE 80CO GRAF POPE INDV CTGS
file:///C:/Users/mauri/AppData/Local/Temp/~hhFC97.htm 16/05/2026

--- PAGE 11 ---
Códigos de Execução Page 11 of 668
Códigos de Execução > Código de Execução CART
Conjunto de Dados
1. Registro com o código CART e opções ativadas.
file:///C:/Users/mauri/AppData/Local/Temp/~hhFC97.htm 16/05/2026

--- PAGE 12 ---
Códigos de Execução Page 12 of 668
Códigos de Execução
Código de Execução CASO
Mais:
Função
Opções de Controle de Execução Disponíveis
Conjunto de Dados
file:///C:/Users/mauri/AppData/Local/Temp/~hhFC97.htm 16/05/2026

--- PAGE 13 ---
Códigos de Execução Page 13 of 668
Códigos de Execução > Código de Execução CASO
Função
Inicializa a área de dados do programa para início de estudo de um novo caso.
file:///C:/Users/mauri/AppData/Local/Temp/~hhFC97.htm 16/05/2026

--- PAGE 14 ---
Códigos de Execução Page 14 of 668
Códigos de Execução > Código de Execução CASO
Opções de Controle de Execução Disponíveis
IMPR FILE 80CO GRAF
file:///C:/Users/mauri/AppData/Local/Temp/~hhFC97.htm 16/05/2026

--- PAGE 15 ---
Códigos de Execução Page 15 of 668
Códigos de Execução > Código de Execução CASO
Conjunto de Dados
1. Registro com o código CASO.
file:///C:/Users/mauri/AppData/Local/Temp/~hhFC97.htm 16/05/2026

--- PAGE 16 ---
Códigos de Execução Page 16 of 668
Códigos de Execução
Código de Execução CLOG
Mais:
Função
Conjunto de Dados
file:///C:/Users/mauri/AppData/Local/Temp/~hhFC97.htm 16/05/2026

--- PAGE 17 ---
Códigos de Execução Page 17 of 668
Códigos de Execução > Código de Execução CLOG
Função
Tranferir o arquivo LOG de comandos para o arquivo que está associado a ULOG#3.
O conteúdo já gravado no arquivo ANAREDE.LOG é automaticamente copiado.
file:///C:/Users/mauri/AppData/Local/Temp/~hhFC97.htm 16/05/2026

--- PAGE 18 ---
Códigos de Execução Page 18 of 668
Códigos de Execução > Código de Execução CLOG
Conjunto de Dados
1. Registro com o código CLOG
file:///C:/Users/mauri/AppData/Local/Temp/~hhFC97.htm 16/05/2026

--- PAGE 19 ---
Códigos de Execução Page 19 of 668
Códigos de Execução
Código de Execução COMP
Mais:
Função
Opções de Controle de Execução Disponíveis
Conjunto de Dados
file:///C:/Users/mauri/AppData/Local/Temp/~hhFC97.htm 16/05/2026

--- PAGE 20 ---
Códigos de Execução Page 20 of 668
Códigos de Execução > Código de Execução COMP
Função
Compara dois casos armazenados em um mesmo arquivo histórico formato ANAREDE.
file:///C:/Users/mauri/AppData/Local/Temp/~hhFC97.htm 16/05/2026

--- PAGE 21 ---
Códigos de Execução Page 21 of 668
Códigos de Execução > Código de Execução COMP
Opções de Controle de Execução Disponíveis
IMPR FILE 80CO HIST
file:///C:/Users/mauri/AppData/Local/Temp/~hhFC97.htm 16/05/2026

--- PAGE 22 ---
Códigos de Execução Page 22 of 668
Códigos de Execução > Código de Execução COMP
Conjunto de Dados
1. Registro com o código COMP.
2. Registro com o número do caso A:
3. Registro com o número do caso B:
1. Registro com o código COMP HIST.
2. Nome do arquivo histórico A mais o caminho onde está o arquivo, quando necessário:
3. Registro com o número do caso do arquivo histórico A:
4. Nome do arquivo histórico B mais o caminho onde está o arquivo, quando necessário:
5. Registro com o número do caso do arquivo histórico B:
file:///C:/Users/mauri/AppData/Local/Temp/~hhFC97.htm 16/05/2026

--- PAGE 23 ---
Códigos de Execução Page 23 of 668
Códigos de Execução
Código de Execução CONC
Mais:
Função
Opções de Controle de Execução Disponíveis
Conjunto de Dados
file:///C:/Users/mauri/AppData/Local/Temp/~hhFC97.htm 16/05/2026

--- PAGE 24 ---
Códigos de Execução Page 24 of 668
Códigos de Execução > Código de Execução CONC
Função
Ajusta no CONsole de comandos integrada interface do Anarede a Cor de fundo.
file:///C:/Users/mauri/AppData/Local/Temp/~hhFC97.htm 16/05/2026

--- PAGE 25 ---
Códigos de Execução Page 25 of 668
Códigos de Execução > Código de Execução CONC
Opções de Controle de Execução Disponíveis
CNF1 CNF2 CNF3 CNF4
file:///C:/Users/mauri/AppData/Local/Temp/~hhFC97.htm 16/05/2026

--- PAGE 26 ---
Códigos de Execução Page 26 of 668
Códigos de Execução > Código de Execução CONC
Conjunto de Dados
1. Registro com o código CONC acompanhado da opção que representa a cor desejada.
· Opção de Execução CNF1: Fundo Branco
· Opção de Execução CNF2: Fundo Preto
· Opção de Execução CNF3: Fundo Azul
· Opção de Execução CNF4: Fundo Cinza
file:///C:/Users/mauri/AppData/Local/Temp/~hhFC97.htm 16/05/2026

--- PAGE 27 ---
Códigos de Execução Page 27 of 668
Códigos de Execução
Código de Execução DAEB
Mais:
Função
Opções de Controle de Execução Disponíveis
Conjunto de Dados
Formato dos Dados de Alteração de Estado Operativo de Barra CA
Exemplo de Utilização
file:///C:/Users/mauri/AppData/Local/Temp/~hhFC97.htm 16/05/2026

--- PAGE 28 ---
Códigos de Execução Page 28 of 668
Códigos de Execução > Código de Execução DAEB
Função
Leitura dos dados de alteração de estado operativo de Barra CA.
file:///C:/Users/mauri/AppData/Local/Temp/~hhFC97.htm 16/05/2026

--- PAGE 29 ---
Códigos de Execução Page 29 of 668
Códigos de Execução > Código de Execução DAEB
Opções de Controle de Execução Disponíveis
IMPR FILE 80CO EMOF
file:///C:/Users/mauri/AppData/Local/Temp/~hhFC97.htm 16/05/2026

--- PAGE 30 ---
Códigos de Execução Page 30 of 668
Códigos de Execução > Código de Execução DAEB
Conjunto de Dados
1. Registro com o código DAEB e opções ativadas.
2. Registros com a descrição do conjunto de barras a serem desligadas.
3. Registro 99999 nas colunas 1-5 indicando fim do conjunto de dados.
file:///C:/Users/mauri/AppData/Local/Temp/~hhFC97.htm 16/05/2026

--- PAGE 31 ---
Códigos de Execução Page 31 of 668
Códigos de Execução > Código de Execução DAEB
Formato dos Dados de Alteração de Estado Operativo de Barra CA
Campo Colunas Descrição Default
Tipo do 01-04 BARR - especifica que o elemento é uma barra.
Elemento
AREA - especifica que o elemento é uma área.
TENS - especifica que o elemento é uma base de tensão.
AG01..AG10 - especifica que o elemento é um agregador.
Identificação 06-10 Número da barra ou área, como definido nos campos Número
do ou Área do Código de Execução DBAR, ou base de tensão como
Elemento definido no campo Tensão do Código de Execução DGBT.
Condição 1 12-12 A - especifica uma condição de intervalo.
E - especifica uma condição de união.
Tipo do 14-17 BARR - especifica que o elemento é uma barra.
Elemento
AREA - especifica que o elemento é uma área.
TENS - especifica que o elemento é uma base de tensão.
AG01..AG10- especifica que o elemento é um agregador.
Identificação 19-23 Número da barra ou área, como definido nos campos Número
do ou Área do Código de Execução DBAR, ou base de tensão como
Elemento definido no campo Tensão do Código de Execução DGBT.
Condição 25-25 X Indica diferença entre os conjuntos definidos pelas
Principal µ condições 1 e 2.
E Indica união entre os conjuntos definidos pelas condições 1
e 2.
S Indica interseção entre os conjuntos definidos pelas
condições 1 e 2.
Tipo do 27-30 BARR - especifica que o elemento é uma barra.
Elemento
AREA - especifica que o elemento é uma área.
TENS - especifica que o elemento é uma base de tensão.
AG01..AG10 - especifica que o elemento é um agregador.
Identificação 32-36 Número da barra ou área, como definido nos campos Número
do ou Área do Código de Execução DBAR, ou base de tensão como
Elemento definido no campo Tensão do Código de Execução DGBT.
Condição 38-38 A - especifica uma condição de intervalo.
2µ
E - especifica uma condição de união.
Tipo do 40-43 BARR - especifica que o elemento é uma barra.
Elemento
AREA - especifica que o elemento é uma área.
TENS - especifica que o elemento é uma base de tensão.
AG01..AG10 - especifica que o elemento é um agregador.
Identificação 45-49 Número da barra ou área, como definido nos campos Número
do ou Área do Código de Execução DBAR, ou base de tensão como
Elemento definido no campo Tensão do Código de Execução DGBT.
Estado 51-51 L se o estado desejado for ligado.
Operativo
da Barra D se o estado desejado for desligado.
file:///C:/Users/mauri/AppData/Local/Temp/~hhFC97.htm 16/05/2026

--- PAGE 32 ---
Códigos de Execução Page 32 of 668
Códigos de Execução > Código de Execução DAEB
Exemplo de Utilização
Código de Execução: DAEB
(Desliga todas as barras de 500kV da Área 01)
(tp) (num) C (tp) (num) C (tp) (num) C (tp) (num) E
AREA 01 E TENS 500
99999
file:///C:/Users/mauri/AppData/Local/Temp/~hhFC97.htm 16/05/2026

--- PAGE 33 ---
Códigos de Execução Page 33 of 668
Códigos de Execução
Código de Execução DAGA
Mais:
Função
Opções de Controle de Execução Disponíveis
Conjunto de Dados
Formato dos Dados dos Fatores de Alteração de Geração Ativa
file:///C:/Users/mauri/AppData/Local/Temp/~hhFC97.htm 16/05/2026

--- PAGE 34 ---
Códigos de Execução Page 34 of 668
Códigos de Execução > Código de Execução DAGA
Função
Leitura dos fatores de alteração do nível de geração ativa do sistema.
file:///C:/Users/mauri/AppData/Local/Temp/~hhFC97.htm 16/05/2026

--- PAGE 35 ---
Códigos de Execução Page 35 of 668
Códigos de Execução > Código de Execução DAGA
Opções de Controle de Execução Disponíveis
IMPR FILE 80CO
file:///C:/Users/mauri/AppData/Local/Temp/~hhFC97.htm 16/05/2026

--- PAGE 36 ---
Códigos de Execução Page 36 of 668
Códigos de Execução > Código de Execução DAGA
Conjunto de Dados
1. Registro com o código DAGA e opções ativadas.
2. Registros com os dados dos fatores de alteração do nível de geração ativa.
3. Registro 99999 nas colunas 1-5 indicando fim do conjunto de dados.
file:///C:/Users/mauri/AppData/Local/Temp/~hhFC97.htm 16/05/2026

--- PAGE 37 ---
Códigos de Execução Page 37 of 668
Códigos de Execução > Código de Execução DAGA
Formato dos Dados dos Fatores de Alteração de Geração Ativa
Campo Colunas Descrição Default
Tipo do 01-04 BARR - especifica que o elemento é uma barra.
Elemento
AREA - especifica que o elemento é uma área.
TENS - especifica que o elemento é uma base de tensão.
AG01..AG10 - especifica que o elemento é um agregador.
Identificação 06-10 Número da barra ou área, como definido nos campos Número
do ou Área do Código de Execução DBAR, ou base de tensão
Elemento como definido no campo Tensão do Código de Execução
DGBT.
Condição 1 12-12 A - especifica uma condição de intervalo.
E - especifica uma condição de união.
Tipo do 14-17 BARR - especifica que o elemento é uma barra.
Elemento
AREA - especifica que o elemento é uma área.
TENS - especifica que o elemento é uma base de tensão.
AG01..AG10 - especifica que o elemento é um agregador.
Identificação 19-23 Número da barra ou área, como definido nos campos Número
do ou Área do Código de Execução DBAR, ou base de tensão
Elemento como definido no campo Tensão do Código de Execução
DGBT.
Condição 25-25 X Indica diferença entre os conjuntos definidos pelas
Principal µ condições 1 e 2.
E Indica união entre os conjuntos definidos pelas condições
1 e 2.
S Indica interseção entre os conjuntos definidos pelas
condições 1 e 2.
Tipo do 27-30 BARR - especifica que o elemento é uma barra.
Elemento
AREA - especifica que o elemento é uma área.
TENS - especifica que o elemento é uma base de tensão.
AG01..AG10 - especifica que o elemento é um agregador.
Identificação 32-36 Número da barra ou área, como definido nos campos Número
do ou Área do Código de Execução DBAR, ou base de tensão
Elemento como definido no campo Tensão do Código de Execução
DGBT.
Condição 38-38 A - especifica uma condição de intervalo.
2µ
E - especifica uma condição de união.
Tipo do 40-43 BARR - especifica que o elemento é uma barra.
Elemento
AREA - especifica que o elemento é uma área.
TENS - especifica que o elemento é uma base de tensão.
AG01..AG10 - especifica que o elemento é um agregador.
Identificação 45-49 Número da barra ou área, como definido nos campos Número
do ou Área do Código de Execução DBAR, ou base de tensão
Elemento como definido no campo Tensão do Código de Execução
DGBT.
Fator de 51-56 Fator a ser aplicado à parte ativa das gerações da área 0.0
Geração especificada, em %.
Ativa
file:///C:/Users/mauri/AppData/Local/Temp/~hhFC97.htm 16/05/2026

--- PAGE 38 ---
Códigos de Execução Page 38 of 668
Códigos de Execução
Código de Execução DAGR
Mais:
Função
Opções de Controle de Execução Disponíveis
Conjunto de Dados
Formato dos Dados de Identificação e Descrição de Agregador
Formato dos Dados de Ocorrências de Agregador
Exemplo de Utilização
file:///C:/Users/mauri/AppData/Local/Temp/~hhFC97.htm 16/05/2026

--- PAGE 39 ---
Códigos de Execução Page 39 of 668
Códigos de Execução > Código de Execução DAGR
Função
Leitura dos dados de agregadores genéricos.
file:///C:/Users/mauri/AppData/Local/Temp/~hhFC97.htm 16/05/2026

--- PAGE 40 ---
Códigos de Execução Page 40 of 668
Códigos de Execução > Código de Execução DAGR
Opções de Controle de Execução Disponíveis
IMPR FILE INIC
file:///C:/Users/mauri/AppData/Local/Temp/~hhFC97.htm 16/05/2026

--- PAGE 41 ---
Códigos de Execução Page 41 of 668
Códigos de Execução > Código de Execução DAGR
Conjunto de Dados
1. Registro com o código DAGR e opções ativadas.
2. Registro com os dados de identificação e descrição do primeiro agregador.
3. Registros com a identificação e descrição de todas as ocorrência do primeiro agregador.
4. Registro FAGR nas colunas 1-4 indicando o fim do primeiro conjunto de agregadores.
5. …
6. Registro com os dados de identificação (1 a 10) e descrição do i-ésimo agregador.
7. Registros com a identificação e descrição de todas as ocorrências do i-ésimo agregador.
8. Registro FAGR nas colunas 1-4 indicando o fim do primeiro conjunto de agregadores.
9. …
10. Registro 99999 nas colunas 1-5 indicando fim do conjunto de dados.
file:///C:/Users/mauri/AppData/Local/Temp/~hhFC97.htm 16/05/2026

--- PAGE 42 ---
Códigos de Execução Page 42 of 668
Códigos de Execução > Código de Execução DAGR
Formato dos Dados de Identificação e Descrição de Agregador
Campo Colunas Descrição Default
Número 01-03 Número do agregador (1 a 10).
Descrição 05-40 Identificação alfanumérica do agregador.
file:///C:/Users/mauri/AppData/Local/Temp/~hhFC97.htm 16/05/2026

--- PAGE 43 ---
Códigos de Execução Page 43 of 668
Códigos de Execução > Código de Execução DAGR
Formato dos Dados de Ocorrências de Agregador
Campo Colunas Descrição Default
NÚMERO 01-03 NÚMERO DA OCORRÊNCIA DO AGREGADOR.
OPERAÇÃO 05-05 A OU 0 - ADIÇÃO DE DADOS DE AGREGADOR. A
E OU 1 - ELIMINAÇÃO DE DADOS DE AGREGADOR.
M OU 2 - MODIFICAÇÃO DE DADOS DE AGREGADOR.
DESCRIÇÃO 07-42 IDENTIFICAÇÃO ALFANUMÉRICA DA OCORRÊNCIA
DO AGREGADOR.
file:///C:/Users/mauri/AppData/Local/Temp/~hhFC97.htm 16/05/2026

--- PAGE 44 ---
Códigos de Execução Page 44 of 668
Códigos de Execução > Código de Execução DAGR
Exemplo de Utilização
Código de Execução: DAGR
DAGR IMPR
(AG ( D E S C R I C A O )
001 ESTADOS DA FEDERACAO
(ID O ( Nome de Identificacao )
100 MINAS GERAIS
200 RIO DE JANEIRO
300 SAO PAULO
400 BAHIA
500 GOIAS
600 PARANA
700 SANTA CATARINA
800 RIO GRANDE DO SUL
FAGR
(AG ( D E S C R I C A O )
002 EMPRESAS
(ID O ( Nome de Identificacao )
900 CESP
800 AMPLA
700 LIGHT
600 CTEEP
500 ELETRONORTE
400 FURNAS
300 CHESF
200 CEMIG GT
100 ELETROSUL
FAGR
(AG ( D E S C R I C A O )
003 REGIAO
(ID O ( Nome de Identificacao )
100 NORTE
200 NORDESTE
300 SUDESTE
400 SUL
500 CENTRO-OESTE
FAGR
(AG ( D E S C R I C A O )
004 SUB-AREAS
(ID O ( Nome de Identificacao )
100 MG-RJ-ES
200 PE-RN-BA-SE-AL
FAGR
99999
file:///C:/Users/mauri/AppData/Local/Temp/~hhFC97.htm 16/05/2026

--- PAGE 45 ---
Códigos de Execução Page 45 of 668
Códigos de Execução
Código de Execução DANC
Mais:
Função
Opções de Controle de Execução Disponíveis
Conjunto de Dados sem a opção ACLS
Formato dos Dados dos Fatores de Alteração de Carregamento sem a opção ACLS
Conjunto de Dados com a opção ACLS
Formato dos Dados dos Fatores de Alteração de Carregamento com a opção ACLS
file:///C:/Users/mauri/AppData/Local/Temp/~hhFC97.htm 16/05/2026

--- PAGE 46 ---
Códigos de Execução Page 46 of 668
Códigos de Execução > Código de Execução DANC
Função
Leitura dos fatores de alteração do nível de carregamento de áreas do sistema.
file:///C:/Users/mauri/AppData/Local/Temp/~hhFC97.htm 16/05/2026

--- PAGE 47 ---
Códigos de Execução Page 47 of 668
Códigos de Execução > Código de Execução DANC
Opções de Controle de Execução Disponíveis
IMPR FILE 80CO BPAR BPSI
ACLS VABS FCTE
file:///C:/Users/mauri/AppData/Local/Temp/~hhFC97.htm 16/05/2026

--- PAGE 48 ---
Códigos de Execução Page 48 of 668
Códigos de Execução > Código de Execução DANC
Conjunto de Dados sem a opção ACLS
11. Registro com o código DANC e opções ativadas.
12. Registros com os dados dos fatores de alteração do nível de carregamento.
13. Registro 99999 nas colunas 1-5 indicando fim do conjunto de dados.
file:///C:/Users/mauri/AppData/Local/Temp/~hhFC97.htm 16/05/2026

--- PAGE 49 ---
Códigos de Execução Page 49 of 668
Códigos de Execução > Código de Execução DANC
Formato dos Dados dos Fatores de Alteração de Carregamento sem a opção ACLS
Campo Colunas Descrição Default
Número 01-03 Número da área, como definido no campo Área do Código de
Execução DBAR.
Fator de 05-10 Fator a ser aplicado à parte ativa das cargas da área especificada, 0.0
Carga em %. Se for utilizada a opção VABS ou a opção FCTE, este
Ativa campo deve ser preenchido com a parte ativa do novo montante
de carga da área especificada, em MW. A variação de potência
ativa ocasionada pode ser distribuída entre as barras de geração
da área, se a opção BPAR for ativada, ou entre todas as barras de
geração do sistema, se a opção BPSI for ativada. Esta
distribuição é efetuada proporcionalmente aos fatores de
participação de cada uma das barras de geração, como definido
no campo Fator de Participação do Código de Execução
DGER.
Fator de 12-17 Fator a ser aplicado à parte reativa das cargas da área 0.0
Carga especificada, em %. Se for utilizada a opção VABS, este campo
Reativa deve ser preenchido com a parte reativa do novo montante de
carga da área especificada, em Mvar. Se a opção FCTE for
utilizada, este campo não deve ser preenchido.
Fator de 19-24 Fator a ser aplicado aos valores nominais dos 0.0
Shunt capacitores/reatores da área especificada, em %. Se for utilizada
a opção VABS ou a opção FCTE, este campo não deve ser
preenchido.
file:///C:/Users/mauri/AppData/Local/Temp/~hhFC97.htm 16/05/2026

--- PAGE 50 ---
Códigos de Execução Page 50 of 668
Códigos de Execução > Código de Execução DANC
Conjunto de Dados com a opção ACLS
1. Registro com o código DANC e opções ativadas.
2. Registros com os dados dos fatores de alteração do nível de carregamento.
3. Registro 99999 nas colunas 1-5 indicando fim do conjunto de dados.
file:///C:/Users/mauri/AppData/Local/Temp/~hhFC97.htm 16/05/2026

--- PAGE 51 ---
Códigos de Execução Page 51 of 668
Códigos de Execução > Código de Execução DANC 
Formato dos Dados dos Fatores de Alteração de Carregamento com a opção ACLS
Campo Colunas Descrição Default
Tipo do 01-04 BARR - especifica que o elemento é uma barra.
Elemento
AREA - especifica que o elemento é uma área.
TENS - especifica que o elemento é uma base de tensão.
AG01..AG10 - especifica que o elemento é um agregador.
Identificação 06-10 Número da barra ou área, como definido nos campos Número
do ou Área do Código de Execução DBAR, ou base de tensão
Elemento como definido no campo Tensão do Código de Execução
DGBT.
Condição 1 12-12 A - especifica uma condição de intervalo.
E - especifica uma condição de união.
Tipo do 14-17 BARR - especifica que o elemento é uma barra.
Elemento
AREA - especifica que o elemento é uma área.
TENS - especifica que o elemento é uma base de tensão.
AG01..AG10 - especifica que o elemento é um agregador.
Identificação 19-23 Número da barra ou área, como definido nos campos Número
do ou Área do Código de Execução DBAR, ou base de tensão
Elemento como definido no campo Tensão do Código de Execução
DGBT.
Condição 25-25 X Indica diferença entre os conjuntos definidos pelas
Principal µ condições 1 e 2.
E Indica união entre os conjuntos definidos pelas condições
1 e 2.
S Indica interseção entre os conjuntos definidos pelas
condições 1 e 2.
Tipo do 27-30 BARR - especifica que o elemento é uma barra.
Elemento
AREA - especifica que o elemento é uma área.
TENS - especifica que o elemento é uma base de tensão.
AG01..AG10 - especifica que o elemento é um agregador.
Identificação 32-36 Número da barra ou área, como definido nos campos Número
do ou Área do Código de Execução DBAR, ou base de tensão
Elemento como definido no campo Tensão do Código de Execução
DGBT.
Condição 38-38 A - especifica uma condição de intervalo.
2µ
E - especifica uma condição de união.
Tipo do 40-43 BARR - especifica que o elemento é uma barra.
Elemento
AREA - especifica que o elemento é uma área.
TENS - especifica que o elemento é uma base de tensão.
AG01..AG10 - especifica que o elemento é um agregador.
Identificação 45-49 Número da barra ou área, como definido nos campos Número
do ou Área do Código de Execução DBAR, ou base de tensão
Elemento como definido no campo Tensão do Código de Execução
DGBT.
Fator de 51-56 Fator a ser aplicado à parte ativa das cargas da área 0.0
Carga Ativa especificada, em %. Se for utilizada a opção VABS ou a opção
FCTE, este campo deve ser preenchido com a parte ativa do
novo montante de carga da área especificada, em MW. A
variação de potência ativa ocasionada pode ser distribuída
entre as barras de geração da área, se a opção BPAR for
ativada, ou entre todas as barras de geração do sistema, se a
opção BPSI for ativada. Esta distribuição é efetuada
proporcionalmente aos fatores de participação de cada uma das
barras de geração, como definido no campo Fator de
Participação do Código de Execução DGER.
Fator de 58-63 Fator a ser aplicado à parte reativa das cargas da área 0.0
Carga especificada, em %. Se for utilizada a opção VABS, este campo
Reativa deve ser preenchido com a parte reativa do novo montante de
carga da área especificada, em Mvar. Se a opção FCTE for
utilizada, este campo não deve ser preenchido.
Fator de 65-70 Fator a ser aplicado aos valores nominais dos 0.0
Shunt capacitores/reatores da área especificada, em %. Se for
utilizada a opção VABS ou a opção FCTE, este campo não
deve ser preenchido.
2.11.

file:///C:/Users/mauri/AppData/Local/Temp/~hhFC97.htm 16/05/2026

--- PAGE 52 ---
Códigos de Execução Page 52 of 668
Códigos de Execução
Código de Execução DARE
Mais:
Função
Opções de Controle de Execução Disponíveis
Conjunto de Dados
Formato dos Dados de Área
file:///C:/Users/mauri/AppData/Local/Temp/~hhFC97.htm 16/05/2026

--- PAGE 53 ---
Códigos de Execução Page 53 of 668
Códigos de Execução > Código de Execução DARE
Função
Leitura dos dados de intercâmbio de potência ativa entre áreas.
file:///C:/Users/mauri/AppData/Local/Temp/~hhFC97.htm 16/05/2026

--- PAGE 54 ---
Códigos de Execução Page 54 of 668
Códigos de Execução > Código de Execução DARE
Opções de Controle de Execução Disponíveis
IMPR FILE 80CO
file:///C:/Users/mauri/AppData/Local/Temp/~hhFC97.htm 16/05/2026

--- PAGE 55 ---
Códigos de Execução Page 55 of 668
Códigos de Execução > Código de Execução DARE
Conjunto de Dados
1. Registro com o código DARE e opções ativadas.
2. Registros com os dados de área.
3. Registro 99999 nas colunas 1-5 indicando fim do conjunto de dados.
file:///C:/Users/mauri/AppData/Local/Temp/~hhFC97.htm 16/05/2026

--- PAGE 56 ---
Códigos de Execução Page 56 of 668
Códigos de Execução > Código de Execução DARE
Formato dos Dados de Área
Campo Colunas Descrição Default
Número 01-03 Número da área, como definido. no campo Área do Código de
Execução DBAR.
Intercâmbio 08-13 Valor líquido do intercâmbio da área, em MW (valor positivo 0.0
Líquido para exportação e negativo para importação).
Nome 19-54 Identificação alfanumérica da área.
Intercâmbio 56-61 Valor mínimo do intercâmbio líquido da área, em MW (valor 0.0
Mínimo positivo para exportação e negativo para importação).
Intercâmbio 63-68 Valor máximo do intercâmbio líquido da área, em MW (valor 0.0
Máximo positivo para exportação e negativo para importação).
file:///C:/Users/mauri/AppData/Local/Temp/~hhFC97.htm 16/05/2026

--- PAGE 57 ---
Códigos de Execução Page 57 of 668
Códigos de Execução
Código de Execução DAVR
Mais:
Função
Opções de Controle de Execução Disponíveis
Conjunto de Dados
Formato dos Dados de Identificação de Trecho de Corredor de Recomposição
Formato dos Dados de Equipamentos Manobrados de Trechos de Corredor de Recomposição
file:///C:/Users/mauri/AppData/Local/Temp/~hhFC97.htm 16/05/2026

--- PAGE 58 ---
Códigos de Execução Page 58 of 668
Códigos de Execução > Código de Execução DAVR
Função
Leitura dos dados de trechos para avaliação de corredores de recomposição.
file:///C:/Users/mauri/AppData/Local/Temp/~hhFC97.htm 16/05/2026

--- PAGE 59 ---
Códigos de Execução Page 59 of 668
Códigos de Execução > Código de Execução DAVR
Opções de Controle de Execução Disponíveis
IMPR FILE 80CO GRAV
file:///C:/Users/mauri/AppData/Local/Temp/~hhFC97.htm 16/05/2026

--- PAGE 60 ---
Códigos de Execução Page 60 of 668
Códigos de Execução > Código de Execução DAVR
Conjunto de Dados
1. Registro com o código DAVR e opções ativadas.
2. Registros com os dados de identificação do primeiro trecho do corredor de recomposição.
3. Registros com os dados de equipamentos manobrados do primeiro trecho do corredor de recomposição.
4. Registro FTRE nas colunas 1-4 indicando o fim do primeiro trecho do corredor de recomposição.
5. ...
6. Registros com os dados de identificação do i-ésimo trecho do corredor de recomposição.
7. Registros com os dados de equipamentos manobrados do i-ésimo trecho do corredor de recomposição.
8. Registro FTRE nas colunas 1-4 indicando o fim do i-ésimo trecho do corredor de recomposição.
9. ...
10. Registro 99999 nas colunas 1-4 indicando fim do conjunto de dados.
file:///C:/Users/mauri/AppData/Local/Temp/~hhFC97.htm 16/05/2026

--- PAGE 61 ---
Códigos de Execução Page 61 of 668
Códigos de Execução > Código de Execução DAVR
Formato dos Dados de Identificação de Trecho de Corredor de Recomposição
Campo Colunas Descrição Default
Número 01-04 Número de identificação do trecho do corredor de
recomposição.
Operação 06-06 A ou 0 - adição de dados do trecho do corredor de A
recomposição.
E ou 1 - eliminação de dados do trecho do corredor de
recomposição.
M ou 2 - modificação de dados do trecho do corredor de
recomposição.
Nome 08-43 Identificação alfanumérica do trecho do corredor de TRECHO
recomposição. #Número
file:///C:/Users/mauri/AppData/Local/Temp/~hhFC97.htm 16/05/2026

--- PAGE 62 ---
Códigos de Execução Page 62 of 668
Códigos de Execução > Código de Execução DAVR 
Formato dos Dados de Equipamentos Manobrados de Trechos de Corredor de Recomposição
Barra CA
Campo Colunas Descrição Default
Tipo de 01-04 BARR – indicando alteração no estado operativo de Barra
Equipamento CA.
Operação 06-06 A ou 0 - adição de dados A
E ou 1 - eliminação de dados
M ou 2 - modificação de dados
Da Barra 08-12 Número da barra CA na qual será alterado o estado operativo,
como definido no campo Número do Código de Execução
DBAR.
Tensão 14-18 Tensão especificada. Ponto decimal entre as colunas 14 e 15.
Tipo 21-21 Tipo da barra CA. (1 - Barra PV; 2 – Barra Vθ)
Estado 33-33 L se o estado desejado for ligado.
Operativo
D se o estado desejado for desligado.
Tensão de 39-42 Novo valor de tensão especificada para a barra remota
Barra controlada pelo gerador conectado à barra em manobra, em
Remota p.u.. É necessário que esse gerador já seja previamente
participante de um esquema de controle remoto. Caso o
gerador não possua previamente um esquema de controle
remoto de tensão, então o valor informado nesse campo será
utilizado para alterar a tensão da própria barra do gerador.
Ponto decimal implícito entre as colunas 39 e 40.
Circuito CA
Campo Colunas Descrição Default
Tipo de 01-04 CIRC – indicando alteração no estado operativo de Circuito
Equipamento CA.
Operação 06-06 A ou 0 - adição de dados A
E ou 1 - eliminação de dados
M ou 2 - modificação de dados
Da Barra 08-12 Número da barra CA de uma das extremidades do circuito
como definido no campo Da Barra do Código de Execução
DLIN.
Para Barra 14-18 Número da barra CA da outra extremidade do circuito como
definido no campo Para Barra do Código de Execução
DLIN.
Circuito 20-21 Número de identificação do circuito CA em paralelo. 1
Extremidade 23-27 Número de identificação da extremidade do circuito que terá Ambas
seu estado operativo modificado alteradas
Estado 33-33 L se o estado desejado for ligado.
Operativo
D se o estado desejado for desligado.
Tensão de 39-42 Novo valor de tensão especificada para a barra remota
Barra controlada pelo transformador em manobra em p.u.. Ponto
Remota decimal implícito entre as colunas 39 e 40.
Tap 44-48 Novo valor de tap para o transformador manobrado. Se o
transformador for de tap fixo, o valor especificado será
alterado, mas será emitido um aviso. Caso o transformador
manobrado esteja em paralelo com outro(s) transformador
(es), eles também terão seus valores de tap alterados. Ponto
decimal implícito entre as colunas 45 e 46.
Carga Individualizada
Campo Colunas Descrição Default
Tipo de 01-04 CARG – indicando alteração no estado operativo de Carga
Equipamento Individualizada.
Operação 06-06 A ou 0 - adição de dados A
E ou 1 - eliminação de dados
M ou 2 - modificação de dados
Da Barra 08-12 Número da barra CA onde se encontra o Grupo de Carga
Individualizada, como definido no campo Número do
Código de Execução DBAR.
Grupo 29-31 Número de identificação do Grupo de Carga Individualizada, 1
como definido no campo Grupo do Código de Execução
DCAI.
Estado 33-33 L se o estado desejado for ligado.
Operativo 
D se o estado desejado for desligado.
file:///C:/Users/mauri/AppData/Local/Temp/~hhFC97.htm 16/05/2026

--- PAGE 63 ---
Códigos de Execução Page 63 of 668
Códigos de Execução
Código de Execução DBAR
Mais:
Função
Opções de Controle de Execução Disponíveis
Conjunto de Dados
Formato dos Dados de Barra CA
file:///C:/Users/mauri/AppData/Local/Temp/~hhFC97.htm 16/05/2026

--- PAGE 64 ---
Códigos de Execução Page 64 of 668
Códigos de Execução > Código de Execução DBAR
Função
Leitura dos dados de barra CA.
file:///C:/Users/mauri/AppData/Local/Temp/~hhFC97.htm 16/05/2026

--- PAGE 65 ---
Códigos de Execução Page 65 of 668
Códigos de Execução > Código de Execução DBAR
Opções de Controle de Execução Disponíveis
IMPR FILE 80CO IERR
file:///C:/Users/mauri/AppData/Local/Temp/~hhFC97.htm 16/05/2026

--- PAGE 66 ---
Códigos de Execução Page 66 of 668
Códigos de Execução > Código de Execução DBAR
Conjunto de Dados
11. Registro com o código DBAR e opções ativadas.
12. Registros com os dados de barra CA.
13. Registro 99999 nas colunas 1-5 indicando fim do conjunto de dados.
file:///C:/Users/mauri/AppData/Local/Temp/~hhFC97.htm 16/05/2026

--- PAGE 67 ---
Códigos de Execução Page 67 of 668
Códigos de Execução > Código de Execução DBAR 
Formato dos Dados de Barra CA
Campo Colunas Descrição Default
Número 01-05 Número de identificação da barra CA.
Operação 06-06 A ou 0 - adição de dados de barra. A
E ou 1 - eliminação de dados de barra.
M ou 2 - modificação de dados de barra.
Estado 07-07 L se a barra estiver em operação (ligado). L
D se a barra circuito estiver fora de operação (desligado).
Tipo 08-08 0 - barra de carga (PQ - Injeções de potências ativa e reativa 0
fixas).
1 - barra de tensão regulada (PV - Injeção de potência ativa e
Magnitude de tensão fixas).
2 - barra de referência (Vθ, Magnitude da tensão e Ângulo de
fase fixo).
3 - barra de carga com limite de tensão (PQ - Injeções de
potências ativa e reativa fixas enquanto a magnitude de
tensão permanecer entre os valores limites).
Grupo de 09-10 Identificador de Grupo Base de Tensão ao qual pertence a 0
Base de barra CA, composto por até dois caracteres do tipo dígito (0
Tensão a 9) ou caracter (A a Z), conforme definido no Código de
Execução DGBT. Os valores associados aos Grupos Base de
Tensão são definidos no código de execução DGBT. Os
grupos que não forem definidos terão valor igual a 1 kV.
Nome 11-22 Identificação alfanumérica da barra.
Grupo de 23-24 Identificador de Grupo de Limite de Tensão ao qual pertence 0
Limite de a barra CA, composto por até dois caracteres do tipo dígito
Tensão (0 a 9) ou caracter (A a Z), conforme definido no Código de
Execução DGLT. Os valores associados aos Grupos de
Limite de Tensão são definidos no Código de Execução
DGLT. Os grupos que não forem definidos terão valores
limites de tensão, mínimo e máximo, iguais a 0.8 e 1.2 pu,
respectivamente.
Tensão 25-28 Valor inicial da magnitude da tensão, em p.u. Para barra de 1.0
tensão controlada, remotamente ou não, por geração de
potência reativa ou por variação de tap de transformador,
este campo deve ser preenchido com o valor da magnitude da
tensão a ser mantido constante. Ponto decimal implícito entre
as colunas 25 e 26.
Ângulo 29-32 Ângulo de fase inicial da tensão da barra, em graus. 0.0
Geração 33-37 Valor de geração de potência ativa na barra, em MW. Este 0.0
Ativa campo define o ponto base de operação sobre o qual as ações
de controle são executadas de modo a manter o intercâmbio
de potência ativa programado entre áreas. Os erros de
intercâmbio de potência ativa entre áreas são distribuídos
entre os geradores das áreas, com base neste valor e de
acordo com a participação de cada gerador.
Geração 38-42 Valor de geração de potência reativa na barra, em Mvar. Para 0.0
Reativa barra de carga este valor é fixo. Para barra de carga com
limite de tensão este valor é mantido constante, enquanto a
magnitude da tensão permanecer entre os limites
especificados. Para barras de tensão regulada e de referência
com limites de geração de potência reativa especificados,
este campo pode ser deixado em branco.
Geração 43-47 Valor do limite mínimo de geração de potência reativa na
Reativa barra, em Mvar.
Mínima
Geração 48-52 Valor do limite máximo de geração de potência reativa na 
Reativa barra, em Mvar.
Máxima
Barra 53-58 Para barras de tensão regulada e de referência, com limites A
Controlada de potência reativa especificados, este campo destina-se ao própria
número da barra cuja magnitude da tensão será controlada. O barra
valor da magnitude da tensão a ser mantido é obtido no
campo Tensão do registro relativo à barra.
Carga Ativa 59-63 Valor da carga ativa da barra, em MW. No caso da carga 0.0
variar com a magnitude da tensão da barra, entre neste
campo o valor da carga para a tensão especificada no campo
Tensão Para Definição de Carga.
Carga 64-68 Valor da carga reativa da barra, em Mvar. No caso da carga 0.0
Reativa variar com a magnitude da tensão da barra, entre neste
campo o valor da carga para a tensão especificada no campo
Tensão Para Definição de Carga.
Capacitor 69-73 Valor total da potência reativa injetada na barra, em Mvar, 0.0
Reator por bancos de capacitores/reatores. O valor a ser preenchido
neste campo refere-se a potência reativa injetada na tensão
nominal (1.0 p.u.). Este valor deve ser positivo para
capacitores e negativo para reatores.
Área 74-76 Número da área à qual pertence a barra. 1
Tensão Para 77-80 Entre neste campo com o valor em p.u. da tensão para a qual 1.0

Definição de foi medido o valor das parcelas ativa e reativa da carga
Carga definidos nos campos Carga Ativa e Carga Reativa,
file:///C:/Users/mauri/AppData/Local/Temp/~hhFC97.htm 16/05/2026

--- PAGE 68 ---
Códigos de Execução Page 68 of 668
Códigos de Execução
Código de Execução DBDR
Mais:
Função
Opções de Controle de Execução Disponíveis
Conjunto de Dados
Formato dos Dados de Barra CA para a definição das Redes Básica, Complementar, Simulação e Supervisão.
Exemplo de Utilização
file:///C:/Users/mauri/AppData/Local/Temp/~hhFC97.htm 16/05/2026

--- PAGE 69 ---
Códigos de Execução Page 69 of 668
Códigos de Execução > Código de Execução DBDR
Função
Leitura dos dados de Barra CA para a Definição das Redes Básica, Complementar, Simulação e Supervisão.
file:///C:/Users/mauri/AppData/Local/Temp/~hhFC97.htm 16/05/2026

--- PAGE 70 ---
Códigos de Execução Page 70 of 668
Códigos de Execução > Código de Execução DBDR
Opções de Controle de Execução Disponíveis
IMPR FILE 80CO
file:///C:/Users/mauri/AppData/Local/Temp/~hhFC97.htm 16/05/2026

--- PAGE 71 ---
Códigos de Execução Page 71 of 668
Códigos de Execução > Código de Execução DBDR
Conjunto de Dados
1. Registro com o código DBDR e opções ativadas.
2. Registros com os dados de barra CA para a definição das Redes Básica, Complementar, Simulação e Supervisão.
3. Registro 99999 nas colunas 1-5 indicando fim do conjunto de dados.
file:///C:/Users/mauri/AppData/Local/Temp/~hhFC97.htm 16/05/2026

--- PAGE 72 ---
Códigos de Execução Page 72 of 668
Códigos de Execução > Código de Execução DBDR
Formato dos Dados de Barra CA para a definição das Redes Básica, Complementar, Simulação e Supervisão.
Campo Colunas Descrição Default
Tipo do 01-04 BARR - especifica que o elemento é uma barra.
Elemento
AREA - especifica que o elemento é uma área.
TENS - especifica que o elemento é uma base de tensão.
AG01..AG10 - especifica que o elemento é um agregador.
Identificação 06-10 Número da barra ou área, como definido nos campos Número
do Elemento ou Área do Código de Execução DBAR, ou base de tensão
como definido no campo Tensão do Código de Execução
DGBT.
Condição 1 12-12 A - especifica uma condição de intervalo.
E - especifica uma condição de união.
Tipo do 14-17 BARR - especifica que o elemento é uma barra.
Elemento
AREA - especifica que o elemento é uma área.
TENS - especifica que o elemento é uma base de tensão.
AG01..AG10 - especifica que o elemento é um agregador.
Identificação 19-23 Número da barra ou área, como definido nos campos Número
do Elemento ou Área do Código de Execução DBAR, ou base de tensão
como definido no campo Tensão do Código de Execução
DGBT.
Condição 25-25 X Indica diferença entre os conjuntos definidos pelas
Principal µ condições 1 e 2.
E Indica união entre os conjuntos definidos pelas condições
1 e 2.
S Indica interseção entre os conjuntos definidos pelas
condições 1 e 2.
Tipo do 27-30 BARR - especifica que o elemento é uma barra.
Elemento
AREA - especifica que o elemento é uma área.
TENS - especifica que o elemento é uma base de tensão.
AG01..AG10 - especifica que o elemento é um agregador.
Identificação 32-36 Número da barra ou área, como definido nos campos Número
do Elemento ou Área do Código de Execução DBAR, ou base de tensão
como definido no campo Tensão do Código de Execução
DGBT.
Condição 38-38 A - especifica uma condição de intervalo.
2µ
E - especifica uma condição de união.
Tipo do 40-43 BARR - especifica que o elemento é uma barra.
Elemento
AREA - especifica que o elemento é uma área.
TENS - especifica que o elemento é uma base de tensão.
AG01..AG10 - especifica que o elemento é um agregador.
Identificação 45-49 Número da barra ou área, como definido nos campos Número
do Elemento ou Área do Código de Execução DBAR, ou base de tensão
como definido no campo Tensão do Código de Execução
DGBT.
Operação 51-51 A - adição de dados de Barra CA para definição de redes. A
E - eliminação de dados de Barra CA para definição de redes.
M - modificação de dados de de Barra CA para definição de
redes.
Tipo da 53-53 1 – Barras CA da Rede Básica. 1
Rede
2 – Barras CA de geradores com despacho centralizado.
3 – Barras CA da Rede de Supervisão.
4 – Barras CA adicionais retidas da Rede Complementar
5 – Barras CA adicionais retidas da Rede de Simulação
file:///C:/Users/mauri/AppData/Local/Temp/~hhFC97.htm 16/05/2026

--- PAGE 73 ---
Códigos de Execução Page 73 of 668
Códigos de Execução > Código de Execução DBDR
Exemplo de Utilização
( Todas as barras que tenham tensao maior do que 138 kV pertencem a
( Rede Básica. As barras 10 e 501 sao consideradas como sendo usinas
( submetidas ao despacho centralizado.
DBDR
(tp) (no ) C (tp) (no ) C (tp) (no ) C (tp) (no ) O T
AREA 1 A AREA 99 X TENS 1 A TENS 138 1
BARR 10 E BARR 501 2
99999
file:///C:/Users/mauri/AppData/Local/Temp/~hhFC97.htm 16/05/2026

--- PAGE 74 ---
Códigos de Execução Page 74 of 668
Códigos de Execução
Código de Execução DBSH
Mais:
Função
Opções de Controle de Execução Disponíveis
Conjunto de Dados
Formato dos Dados de Barra e de Controle de Tensão dos Bancos Individualizados.
Formato dos Dados de Bancos de Reatores/Capacitores Individualizados.
Exemplo de Utilização
file:///C:/Users/mauri/AppData/Local/Temp/~hhFC97.htm 16/05/2026

--- PAGE 75 ---
Códigos de Execução Page 75 of 668
Códigos de Execução > Código de Execução DBSH
Função
Leitura dos dados de bancos de capacitores e/ou reatores individualizados conectados a barras CA ou linhas de transmissão.
Para os grupos ou bancos de capacitores e/ou reatores individualizados conectados a uma mesma barra, os ajustes quanto à tensão mínima e máxima da faixa
de controle, barra controlada e estratégia do controle de tensão serão sempre idênticos. Ajustes distintos em bancos ligados a uma mesma barra provocariam
conflitos entre os controles para o ajuste da tensão, não sendo, portanto, permitidos. Neste sentido, bancos de capacitores/reatores individualizados conectados
a uma linha de transmissão serão considerados como estando conectados à barra correspondente à extremidade da linha na qual estão instalados.
file:///C:/Users/mauri/AppData/Local/Temp/~hhFC97.htm 16/05/2026

--- PAGE 76 ---
Códigos de Execução Page 76 of 668
Códigos de Execução > Código de Execução DBSH
Opções de Controle de Execução Disponíveis
IMPR FILE 80CO
file:///C:/Users/mauri/AppData/Local/Temp/~hhFC97.htm 16/05/2026

--- PAGE 77 ---
Códigos de Execução Page 77 of 668
Códigos de Execução > Código de Execução DBSH
Conjunto de Dados
1. Registro com o código DBSH e opções ativadas.
2. Registro contendo barra terminal mais dados para o controle de tensão dos bancos a serem definidos abaixo.
3. Registros com dados dos bancos de capacitores/reativos individualizados conectados à barra terminal definida em 2.
4. Registro FBAN nas colunas 1-4 indicando o fim dos dados dos bancos conectados à barra terminal definida em 2.
5. ...
6. Registro contendo barra terminal mais dados para o controle de tensão dos bancos a serem definidos abaixo.
7. Registros com dados dos bancos de capacitores/reativos individualizados conectados à barra terminal definida em 6.
8. Registro FBAN nas colunas 1-4 indicando o fim dos dados dos bancos conectados à barra terminal definida em 6.
9. ...
10. Registro 99999 nas colunas 1-5 indicando fim do conjunto de dados.
file:///C:/Users/mauri/AppData/Local/Temp/~hhFC97.htm 16/05/2026

--- PAGE 78 ---
Códigos de Execução Page 78 of 668
Códigos de Execução > Código de Execução DBSH
Formato dos Dados de Barra e de Controle de Tensão dos Bancos Individualizados.
Campo Colunas Descrição Default
Da Barra 01-05 Número de identificação da barra, como definido no campo
Barra do Código de Execução DBAR, à qual está conectado o
banco de capacitores/reatores shunt ou número da barra de
uma das extremidades do circuito ao qual está conectado o
banco de capacitores/reatores de linha, como definido no
campo Número do Código de Execução DBAR.
Operação 07-07 A ou 0 - adição de dados da barra terminal dos grupos ou A
bancos.
E ou 1 - eliminação de dados da barra terminal dos grupos ou
bancos.
M ou 2 - modificação de dados da barra terminal dos grupos
ou bancos.
Para Barra 09-13 Número da barra da outra extremidade do circuito ao qual está
conectado o banco de capacitores/reatores de linha, como
definido no campo Número do Código de Execução DBAR.
Não utilizado no caso de banco de capacitores/reatores shunt.
Circuito 15-16 NÚMERO DE IDENTIFICAÇÃO DO CIRCUITO CA EM 1
PARALELO.
Modo de 18-18 C se o controle para o chaveamento automático dos bancos F
Controle for Contínuo.
D se o controle para o chaveamento automático dos bancos
for Discreto.
F se o controle para o chaveamento automático dos bancos for
Fixo.
Tensão 20-23 Limite mínimo da faixa de tensão que determina a atuação do Limite
Mínima controle para o chaveamento automático dos bancos. Se este Mínimo
campo não for preenchido, a tensão mínima será idêntica à do DGLT
Grupo Limite de Tensão ao qual a barra pertence. Ponto
decimal implícito entre as colunas 20 e 21.
Tensão 25-28 Limite máximo da faixa de tensão que determina a atuação do Limite
Máxima controle para o chaveamento automático dos bancos. Se este Máximo
campo não for preenchido, a tensão máxima será idêntica à do DGLT
Grupo Limite de Tensão ao qual a barra pertence. Ponto
decimal implícito entre as colunas 25 e 26.
Barra 30-34 Este campo destina-se ao número da barra cuja magnitude da A
Controlada tensão será controlada pelo chaveamento automático dos própria
bancos de capacitores e/ou reatores individualizados barra
conectados a barra definida no Campo Barra. O valor da
magnitude da tensão controlada é dependente da faixa de
tensão definida e da forma de controle especificada nos
Campos Controle e Tipo de Controle.
Injeção 36-41 Valor de injeção inicial total de potência reativa na barra, em 0.0
Reativa Mvar, devido ao conjunto de bancos de capacitores e/ou
reatores conectados na barra definida no Campo Barra. Este
Inicial campo tem a função de representar o valor inicial de injeção
de potência reativa para o método de solução do fluxo de
potência. No caso de no Campo Modo de Controle a opção
escolhida tenha sido “F” (Fixo), este valor irá representar o
que efetivamente é injetado na barra, conforme é feito no
Campo Capacitor/Reator do Código de Execução L.
Tipo do 43-43 C se o controle é feito pelo Centro da faixa de tensão. C
Controle
L se o controle é feito pelo Limite violado da faixa de tensão.
A faixa de tensão é definida pelos campos Tensão Mínima e
Máxima
Apaga 45-45 Se este campo for preenchido com o caracter “S”(Sim), o N
Dados valor informado no campo Capacitor/Reator do Código de
DBAR ? Execução DBAR será apagado.
Extremidade 47-51 Número de identificação da barra, como definido no campo
Barra do Código de Execução DBAR, correspondente à
extremidade do circuito na qual está conectado o banco de
capacitores/reatores shunt.
file:///C:/Users/mauri/AppData/Local/Temp/~hhFC97.htm 16/05/2026

--- PAGE 79 ---
Códigos de Execução Page 79 of 668
Códigos de Execução > Código de Execução DBSH
Formato dos Dados de Bancos de Reatores/Capacitores Individualizados.
Campo Colunas Descrição Default
Grupo ou 01-02 Número de identificação do Grupo ou banco de capacitores
Banco e/ou reatores. Em uma barra podem estar conectados um ou
mais Grupos ou bancos de capacitores e/ou reatores e um
Grupo ou banco pode ser constituído por um ou mais estágios
de chaveamento de capacitores e/ou reatores. O número
máximo de grupos permitido por banco é de 6 (seis) grupos
com controle (modo de controle diferente de FIXO). Caso o
modo de controle seja FIXO, não há limite para quantidade de
grupos por banco.
Operação 05-05 A ou 0 - adição de dados de grupo ou banco de capacitores A
e/ou reatores.
E ou 1 - eliminação de dados de grupo ou banco de
capacitores e/ou reatores.
M ou 2 - modificação de dados de grupo ou banco de
capacitores e/ou reatores.
Estado 07-07 L se o grupo ou banco estiver em operação (ligado) L
D se a grupo ou banco estiver fora de operação (desligado)
Unidades 09-11 Número total de unidades ou estágios iguais que compõe o 1
grupo ou banco de capacitores e/ou reatores. Este dado serve
como memória do número total de unidades ou estágios
existente no grupo.
Unidades 13-15 Número de unidades ou estágios iguais que compõe o grupo Unidades
em ou banco de capacitores e/ou reatores que estão efetivamente
Operação em operação.
Capacitor 17-22 Valor total da potência reativa injetada na barra, em Mvar, por
Reator uma unidade ou estágio de um grupo ou banco de capacitores
e/ou reatores. O valor a ser preenchido neste campo refere-se
à potência reativa injetada na tensão nominal (1.0 p.u.). Este
valor deve ser positivo para capacitores e negativo para
reatores.
Manobrável 24-24 S se o grupo ou banco for manobrável S
N se o grupo ou banco for não manobrável
file:///C:/Users/mauri/AppData/Local/Temp/~hhFC97.htm 16/05/2026

--- PAGE 80 ---
Códigos de Execução Page 80 of 668
Códigos de Execução > Código de Execução DBSH
Exemplo de Utilização
DBSH
(NFr) O (NTo) Nc C (Vmn (Vmx Bctrl (Qini) T A (Extr
539 561 1 F 0900 1100 561 -180. C 561
(G) O E (U) UOp (Sht ) M
1 L 1 1 -180. S
2 D 2 1 -90. S
FBAN
99999
file:///C:/Users/mauri/AppData/Local/Temp/~hhFC97.htm 16/05/2026

--- PAGE 81 ---
Códigos de Execução Page 81 of 668
Códigos de Execução
Código de Execução DBTB
Mais:
Função
Opções de Controle de Execução Disponíveis
Conjunto de Dados
Formato dos Dados de Barra CA para o Tabelador
Exemplo de Utilização
file:///C:/Users/mauri/AppData/Local/Temp/~hhFC97.htm 16/05/2026

--- PAGE 82 ---
Códigos de Execução Page 82 of 668
Códigos de Execução > Código de Execução DBTB
Função
Leitura dos dados de barra CA para o tabelador.
file:///C:/Users/mauri/AppData/Local/Temp/~hhFC97.htm 16/05/2026

--- PAGE 83 ---
Códigos de Execução Page 83 of 668
Códigos de Execução > Código de Execução DBTB
Opções de Controle de Execução Disponíveis
IMPR FILE 80CO
file:///C:/Users/mauri/AppData/Local/Temp/~hhFC97.htm 16/05/2026

--- PAGE 84 ---
Códigos de Execução Page 84 of 668
Códigos de Execução > Código de Execução DBTB
Conjunto de Dados
4. Registro com o código DBTB e opções ativadas.
5. Registros com os dados de barra CA cuja tensão será tabelada.
6. Registro 99999 nas colunas 1-5 indicando fim do conjunto de dados.
file:///C:/Users/mauri/AppData/Local/Temp/~hhFC97.htm 16/05/2026

--- PAGE 85 ---
Códigos de Execução Page 85 of 668
Códigos de Execução > Código de Execução DBTB
Formato dos Dados de Barra CA para o Tabelador
Campo Colunas Descrição Default
Número 01-05 Número da barra, como definido no campo Número do Código
de Execução DBAR.
Tensão 07-11 Tensão mínima para a barra em %. Se este campo não for
preenchido a tensão mínima será idêntica à do Grupo Limite de
Mínima Tensão ao qual a barra pertence.
Tensão 13-17 Tensão máxima para a barra em %. Se este campo não for
preenchido a tensão máxima será idêntica à do Grupo Limite de
Máxima Tensão ao qual a barra pertence.
file:///C:/Users/mauri/AppData/Local/Temp/~hhFC97.htm 16/05/2026

--- PAGE 86 ---
Códigos de Execução Page 86 of 668
Códigos de Execução > Código de Execução DBTB
Exemplo de Utilização
Código de Execução: DBTB
(Barras cuja tensão será tabelada)
(Nb ) (Vmn) (Vmx)
(Barra 1 - Limite mínimo de tensão 90% - Limite máximo de tensão 110%)
1 90. 110.
(Barra 2 - Limites mín. e máx. de tensão iguais aos do Grupo Limite de Tensão)
2
99999
file:///C:/Users/mauri/AppData/Local/Temp/~hhFC97.htm 16/05/2026

--- PAGE 87 ---
Códigos de Execução Page 87 of 668
Códigos de Execução
Código de Execução DCAI
Mais:
Função
Opções de Controle de Execução Disponíveis
Conjunto de Dados
Formato dos Dados da Carga Individualizada
Exemplo de Utilização
file:///C:/Users/mauri/AppData/Local/Temp/~hhFC97.htm 16/05/2026

--- PAGE 88 ---
Códigos de Execução Page 88 of 668
Códigos de Execução > Código de Execução DCAI
Função
Leitura dos parâmetros de carga individualizada.
Para cada grupo de carga individualizada, há a leitura dos parâmetros A, B, C e D que estabelecem a curva de variação desta carga em relação à magnitude de
tensão na respectiva barra. As cargas deste tipo são modeladas por:
Carga ativa = (100-A-B + A * V/V + B * V2/V 2) * P/100 se V ≥ V
def def fld
= ((100-A-B) * V2/V 2 + A * V2 / (V *V ) + B * V2/V 2) * P/100 se V < V
fld def fld def fld
Carga reativa = (100-C-D + C * V/V + D * V2/V 2) * Q/100 se V ≥ V
def def fld
= ((100-C-D) * V2/V 2 + C * V2 / (V *V ) + D * V2/V 2) * Q/100 se V < V
fld def fld def fld
onde:
A, C e B, D, são parâmetros que definem as parcelas de carga representadas por corrente e impedância constantes respectivamente.
P e Q, são as cargas ativa e reativa para a tensão V .
def
V , é a tensão abaixo da qual as parcelas de potência constante e corrente constante passam a ser modeladas como impedância constante.
fld
file:///C:/Users/mauri/AppData/Local/Temp/~hhFC97.htm 16/05/2026

--- PAGE 89 ---
Códigos de Execução Page 89 of 668
Códigos de Execução > Código de Execução DCAI
Opções de Controle de Execução Disponíveis
IMPR FILE 80CO
file:///C:/Users/mauri/AppData/Local/Temp/~hhFC97.htm 16/05/2026

--- PAGE 90 ---
Códigos de Execução Page 90 of 668
Códigos de Execução > Código de Execução DCAI
Conjunto de Dados
4. Registro com o código DCAI e opções ativadas.
5. Registros com parâmetros da curva de variação de carga.
6. Registro 99999 nas colunas 1-5 indicando fim do conjunto de dados.
file:///C:/Users/mauri/AppData/Local/Temp/~hhFC97.htm 16/05/2026

--- PAGE 91 ---
Códigos de Execução Page 91 of 668
Códigos de Execução > Código de Execução DCAI
Formato dos Dados da Carga Individualizada
Campo Colunas Descrição Default
Barra 01-05 Número de identificação da barra, como definido no campo
Barra do Código de Execução DBAR, a qual esta conectado o
grupo de cargas individualizadas.
Operação 07-07 A ou 0 - adição de dados de grupo de cargas individualizadas. A
E ou 1 - eliminação de dados de grupo de cargas
individualizadas.
M ou 2 - modificação de dados de grupo de cargas
individualizadas.
Grupo 10-11 Número de identificação do grupo de cargas individualizadas.
Em uma barra podem estar conectados um ou mais grupos de
cargas individualizadas e um grupo pode ser constituído por
uma ou mais cargas individualizadas.
Estado 13-13 L se o grupo de carga estiver em operação (ligado). L
D se o grupo de carga estiver fora de operação (desligado).
Unidades 15-17 Número total de unidades iguais que compõem o grupo de 1
cargas individualizadas. Este dado serve como memória do
número total de unidades ou estágios existente no grupo.
Unidades 19-21 Número de unidades ou estágios iguais que compõe o grupo Unidades
em de cargas individualizadas que estão efetivamente em
Operação operação.
Carga 23-27 Valor da carga ativa do grupo de cargas individualizadas, em 0.0
...